Version 4
SHEET 1 1384 680
WIRE 480 -160 400 -160
WIRE 656 -160 480 -160
WIRE 736 -160 656 -160
WIRE 848 -160 736 -160
WIRE 400 -144 400 -160
WIRE 656 -144 656 -160
WIRE 848 -80 848 -160
WIRE 400 -48 400 -64
WIRE 432 -48 400 -48
WIRE 480 -48 480 -160
WIRE 656 -48 656 -64
WIRE 688 -48 656 -48
WIRE 736 -48 736 -160
WIRE 400 32 -112 32
WIRE 480 32 480 16
WIRE 480 32 400 32
WIRE 848 32 848 0
WIRE 656 48 240 48
WIRE 736 48 736 16
WIRE 736 48 656 48
WIRE 400 64 400 32
WIRE 656 64 656 48
WIRE -112 96 -112 32
WIRE 400 160 400 144
WIRE 432 160 400 160
WIRE 480 160 480 32
WIRE 656 160 656 144
WIRE 688 160 656 160
WIRE 736 160 736 48
WIRE -112 240 -112 176
WIRE 240 240 240 48
WIRE 240 240 -112 240
WIRE 480 240 480 224
WIRE 576 240 480 240
WIRE 736 240 736 224
WIRE 736 240 576 240
WIRE 848 240 848 112
WIRE 848 240 736 240
WIRE 576 272 576 240
WIRE 576 288 576 272
FLAG 576 272 0
SYMBOL Misc\\signal -112 80 R0
WINDOW 123 0 0 Left 0
WINDOW 39 0 0 Left 0
SYMATTR InstName Vs
SYMATTR Value SINE(0 169.7 60 0)
SYMBOL res 832 -96 R0
SYMATTR InstName R1
SYMATTR Value 10
SYMBOL Misc\\signal 400 -48 R180
WINDOW 123 0 0 Left 0
WINDOW 39 0 0 Left 0
SYMATTR InstName Vs2
SYMATTR Value PULSE(0 5 {T1} 1n 1n 2m 16.66m)
SYMBOL Misc\\SCR 464 16 M180
WINDOW 3 -161 28 Left 2
SYMATTR Value TN5015H-6T
SYMATTR InstName S1
SYMBOL Misc\\SCR 720 224 M180
WINDOW 3 -157 23 Left 2
SYMATTR Value TN5015H-6T
SYMATTR InstName S2
SYMBOL Misc\\signal 656 160 R180
WINDOW 123 0 0 Left 0
WINDOW 39 0 0 Left 0
WINDOW 3 -431 53 Left 2
SYMATTR Value PULSE(0 5 {T1} 1n 1n 2m 16.66m)
SYMATTR InstName Vs3
SYMBOL Misc\\SCR 720 16 M180
WINDOW 3 -161 27 Left 2
SYMATTR Value TN5015H-6T
SYMATTR InstName S3
SYMBOL Misc\\signal 656 -48 R180
WINDOW 123 0 0 Left 0
WINDOW 39 0 0 Left 0
WINDOW 3 -421 46 Left 2
SYMATTR Value PULSE(0 5 {T2} 1n 1n 2m 16.66m)
SYMATTR InstName Vs4
SYMBOL Misc\\SCR 464 224 M180
WINDOW 3 -163 30 Left 2
SYMATTR Value TN5015H-6T
SYMATTR InstName S4
SYMBOL Misc\\signal 400 160 R180
WINDOW 123 0 0 Left 0
WINDOW 39 0 0 Left 0
WINDOW 3 31 84 Left 2
SYMATTR Value PULSE(0 5 {T2} 1n 1n 2m 16.66m)
SYMATTR InstName Vs5
SYMBOL ind 832 16 R0
SYMATTR InstName L1
SYMATTR Value 20m
TEXT -128 288 Left 2 !.tran 0 25m 0 0.5m
TEXT -256 -248 Left 2 !.inc /home/jesus/Documentos/UTSA/Pregrado/2022_1/Potencia/Labs/Lab2/high-temperature_scr_pspice/st_high-temperature_scr.lib
TEXT -128 320 Left 2 !.param alpha=30 T1=alpha*0.0166/360.0 T2=alpha*0.0166/360.0+0.0083
