Version 4
SHEET 1 3212 1036
WIRE 672 -176 672 -192
WIRE 672 -128 592 -128
WIRE 832 -128 736 -128
WIRE 160 -80 32 -80
WIRE 480 -80 480 -112
WIRE 480 -80 240 -80
WIRE 592 -80 592 -128
WIRE 592 -80 480 -80
WIRE 832 -80 832 -128
WIRE 1008 -80 1008 -112
WIRE 1008 -80 832 -80
WIRE 1200 -80 1008 -80
WIRE 1408 -80 1280 -80
WIRE 592 -32 592 -80
WIRE 672 -32 592 -32
WIRE 832 -32 832 -80
WIRE 832 -32 736 -32
WIRE 736 48 736 16
WIRE 688 96 688 64
WIRE 688 144 592 144
WIRE 832 144 752 144
WIRE 32 192 32 -80
WIRE 160 192 32 192
WIRE 480 192 480 160
WIRE 480 192 240 192
WIRE 592 192 592 144
WIRE 592 192 480 192
WIRE 832 192 832 144
WIRE 1008 192 1008 160
WIRE 1008 192 832 192
WIRE 1200 192 1008 192
WIRE 1408 192 1408 -80
WIRE 1408 192 1280 192
WIRE 592 240 592 192
WIRE 688 240 592 240
WIRE 832 240 832 192
WIRE 832 240 752 240
WIRE 752 320 752 288
WIRE 688 368 688 336
WIRE 688 416 592 416
WIRE 832 416 752 416
WIRE 32 464 32 192
WIRE 160 464 32 464
WIRE 480 464 480 432
WIRE 480 464 240 464
WIRE 592 464 592 416
WIRE 592 464 480 464
WIRE 832 464 832 416
WIRE 1008 464 1008 432
WIRE 1008 464 832 464
WIRE 1216 464 1008 464
WIRE 1408 464 1408 192
WIRE 1408 464 1296 464
WIRE 592 496 592 464
WIRE 688 496 592 496
WIRE 832 496 832 464
WIRE 832 496 752 496
WIRE 32 512 32 464
WIRE 752 576 752 544
WIRE -288 640 -288 608
WIRE -176 688 -176 656
WIRE -288 736 -288 720
WIRE -80 736 -80 720
WIRE -176 784 -176 768
WIRE 0 784 0 768
WIRE -80 832 -80 816
WIRE 80 832 80 816
WIRE 0 880 0 864
WIRE 160 880 160 864
WIRE 80 928 80 912
WIRE 160 976 160 960
FLAG -288 608 T1
FLAG -288 736 aL
FLAG -176 784 C
FLAG -176 656 T2
FLAG -80 720 T3
FLAG 0 768 T4
FLAG 80 816 T5
FLAG 160 864 T6
FLAG -80 832 bL
FLAG 0 880 A
FLAG 80 928 cL
FLAG 160 976 B
FLAG 672 -192 T4
FLAG 736 48 T1
FLAG 688 64 T6
FLAG 752 320 T3
FLAG 688 336 T2
FLAG 752 576 T5
FLAG 1008 -112 aL
FLAG 1008 160 bL
FLAG 1008 432 cL
FLAG 480 -112 A
FLAG 480 160 B
FLAG 480 432 C
FLAG 32 512 0
SYMBOL Misc\\signal 256 -80 R90
WINDOW 3 61 -147 VRight 2
WINDOW 123 0 0 Left 0
WINDOW 39 0 0 Left 0
WINDOW 0 -35 -19 VRight 2
SYMATTR Value SINE(0 120 60 0 0 0)
SYMATTR InstName V1
SYMBOL Misc\\signal 256 192 R90
WINDOW 3 63 -186 VRight 2
WINDOW 123 0 0 Left 0
WINDOW 39 0 0 Left 0
WINDOW 0 -28 -18 VRight 2
SYMATTR Value SINE(0 120 60 0 0 120)
SYMATTR InstName V2
SYMBOL Misc\\signal 256 464 R90
WINDOW 3 59 -192 VRight 2
WINDOW 123 0 0 Left 0
WINDOW 39 0 0 Left 0
WINDOW 0 -42 -7 VRight 2
SYMATTR Value SINE(0 120 60 0 0 240)
SYMATTR InstName V3
SYMBOL res 1184 -64 R270
WINDOW 0 32 56 VTop 2
WINDOW 3 0 56 VBottom 2
SYMATTR InstName R1
SYMATTR Value 10
SYMBOL Misc\\SCR 672 -16 R270
WINDOW 3 31 63 Invisible 2
SYMATTR Value TN5015H-6T
SYMATTR InstName U1
SYMBOL Misc\\SCR 752 400 R90
WINDOW 3 24 72 Invisible 2
SYMATTR Value TN5015H-6T
SYMATTR InstName U2
SYMBOL Misc\\SCR 688 256 R270
WINDOW 3 0 64 Invisible 2
SYMATTR Value TN5015H-6T
SYMATTR InstName U3
SYMBOL Misc\\SCR 736 -144 R90
WINDOW 3 24 72 Invisible 2
SYMATTR Value TN5015H-6T
SYMATTR InstName U4
SYMBOL Misc\\SCR 688 512 R270
WINDOW 3 24 72 Invisible 2
SYMATTR Value TN5015H-6T
SYMATTR InstName U5
SYMBOL Misc\\SCR 752 128 R90
WINDOW 3 24 72 Invisible 2
SYMATTR Value TN5015H-6T
SYMATTR InstName U6
SYMBOL Misc\\signal -288 624 R0
WINDOW 3 22 -26 Left 2
WINDOW 123 0 0 Left 0
WINDOW 39 0 0 Left 0
SYMATTR Value PULSE(0 5 {T1} 1n 1n {w} 16.6m)
SYMATTR InstName V4
SYMBOL Misc\\signal -176 672 R0
WINDOW 3 22 -26 Left 2
WINDOW 123 0 0 Left 0
WINDOW 39 0 0 Left 0
SYMATTR Value PULSE(0 5 {T2} 1n 1n {w} 16.6m)
SYMATTR InstName V5
SYMBOL Misc\\signal -80 720 R0
WINDOW 3 22 -26 Left 2
WINDOW 123 0 0 Left 0
WINDOW 39 0 0 Left 0
SYMATTR Value PULSE(0 5 {T3} 1n 1n {w} 16.6m)
SYMATTR InstName V6
SYMBOL Misc\\signal 0 768 R0
WINDOW 3 22 -26 Left 2
WINDOW 123 0 0 Left 0
WINDOW 39 0 0 Left 0
SYMATTR Value PULSE(0 5 {T4} 1n 1n {w} 16.6m)
SYMATTR InstName V7
SYMBOL Misc\\signal 80 816 R0
WINDOW 3 22 -26 Left 2
WINDOW 123 0 0 Left 0
WINDOW 39 0 0 Left 0
SYMATTR Value PULSE(0 5 {T5} 1n 1n {w} 16.6m)
SYMATTR InstName V8
SYMBOL Misc\\signal 160 864 R0
WINDOW 3 22 -26 Left 2
WINDOW 123 0 0 Left 0
WINDOW 39 0 0 Left 0
SYMATTR Value PULSE(0 5 {T6} 1n 1n {w} 16.6m)
SYMATTR InstName V9
SYMBOL res 1296 176 R90
WINDOW 0 0 56 VBottom 2
WINDOW 3 32 56 VTop 2
SYMATTR InstName R2
SYMATTR Value 10
SYMBOL res 1312 448 R90
WINDOW 0 0 56 VBottom 2
WINDOW 3 32 56 VTop 2
SYMATTR InstName R3
SYMATTR Value 10
TEXT -24 -200 Left 2 !.tran 0 100m 10m 0.1m
TEXT -24 -288 Left 2 !.inc /home/jesus/Documentos/UTSA/Materias/Potencia/Labs/Lab2/high-temperature_scr_pspice/st_high-temperature_scr.lib
TEXT -24 -248 Left 2 !.param alpha=20 Trigger=alpha*0.0166/360.0 w=8.28m-Trigger T1=Trigger T2=2.76m+Trigger T3=5.52m+Trigger T4=8.28m+Trigger T5=11.04m+Trigger T6=13.8m+Trigger
