Version 4
SHEET 1 1472 680
WIRE 304 -16 176 -16
WIRE 480 -16 368 -16
WIRE 528 -16 480 -16
WIRE 608 -16 528 -16
WIRE 128 0 -112 0
WIRE 608 0 608 -16
WIRE 128 48 128 0
WIRE 176 48 176 -16
WIRE -112 64 -112 0
WIRE 608 96 608 80
WIRE 528 128 528 -16
WIRE 368 144 368 32
WIRE -112 176 -112 144
WIRE 128 176 128 128
WIRE 128 176 -112 176
WIRE 608 208 608 176
WIRE 368 272 368 224
WIRE 480 272 480 -16
WIRE 480 272 368 272
WIRE 176 304 176 128
WIRE 528 304 528 192
WIRE 528 304 176 304
WIRE 608 304 608 288
WIRE 608 304 528 304
WIRE 608 320 608 304
FLAG 608 320 0
SYMBOL ind2 112 144 M180
WINDOW 0 -32 81 Left 2
WINDOW 3 -75 45 Left 2
SYMATTR InstName L1
SYMATTR Value 1000µ
SYMATTR SpiceLine Rser=0.01
SYMBOL ind2 192 144 R180
WINDOW 0 -37 79 Left 2
WINDOW 3 -46 45 Left 2
SYMATTR InstName L2
SYMATTR Value 5µ
SYMBOL Misc\\signal -112 48 R0
WINDOW 123 0 0 Left 0
WINDOW 39 0 0 Left 0
SYMATTR InstName Vs
SYMATTR Value SINE(0 169.7 60)
SYMBOL res 592 80 R0
SYMATTR InstName Ra
SYMATTR Value 36.8
SYMBOL ind 592 -16 R0
SYMATTR InstName La
SYMATTR Value 5.6m
SYMBOL Misc\\battery 608 192 R0
WINDOW 123 0 0 Left 0
WINDOW 39 0 0 Left 0
SYMATTR InstName Ea
SYMATTR Value 5
SYMBOL Misc\\SCR 304 0 R270
WINDOW 3 -11 -114 VRight 2
SYMATTR Value TN5015H-6T
SYMATTR InstName U1
SYMBOL Misc\\signal 368 128 R0
WINDOW 123 0 0 Left 0
WINDOW 39 0 0 Left 0
WINDOW 3 -184 117 Left 2
SYMATTR Value PULSE(0 5 6m 1n 1n 2m 16.6m)
SYMATTR InstName Vs1
SYMBOL diode 544 192 R180
WINDOW 0 24 64 Left 2
WINDOW 3 24 0 Left 2
SYMATTR InstName D1
TEXT 120 -48 Left 2 !K1 L1 L2 1
TEXT -144 200 Left 2 !.tran 0 100m 0m 0.1m
TEXT -136 -128 Left 2 !.inc /home/jesus/Documentos/UTSA/Pregrado/2022_1/Potencia/Labs/Lab2/high-temperature_scr_pspice/st_high-temperature_scr.lib
