Version 4
SHEET 1 1348 680
WIRE -320 -192 -416 -192
WIRE -160 -192 -240 -192
WIRE 16 -192 0 -192
WIRE 112 -192 96 -192
WIRE 128 -192 112 -192
WIRE 240 -192 208 -192
WIRE 464 -192 240 -192
WIRE -416 -144 -416 -192
WIRE 464 -144 464 -192
WIRE -160 -112 -208 -112
WIRE 32 -112 0 -112
WIRE 240 -112 240 -192
WIRE 32 -48 32 -112
WIRE 192 -48 32 -48
WIRE -416 -16 -416 -64
WIRE -208 -16 -208 -112
WIRE -208 -16 -416 -16
WIRE 464 -16 464 -64
WIRE -416 16 -416 -16
WIRE 112 32 112 -192
WIRE 112 160 112 96
WIRE 240 160 240 -48
WIRE 240 160 112 160
WIRE 464 160 464 64
WIRE 464 160 240 160
WIRE 464 224 464 160
FLAG -416 16 0
FLAG 464 224 0
SYMBOL Misc\\signal 464 -32 R0
WINDOW 123 0 0 Left 0
WINDOW 39 0 0 Left 0
SYMATTR InstName V1
SYMATTR Value SINE(0 120 60)
SYMBOL res 448 -160 R0
SYMATTR InstName BULB
SYMATTR Value 10
SYMBOL Optos\\LED_TRIAC -112 -176 R0
WINDOW 38 32 112 Invisible 0
WINDOW 3 32 -36 Center 0
SYMATTR SpiceModel ""
SYMATTR Value MOC3020
SYMATTR InstName MOC3020
SYMBOL Misc\\TRIAC 208 -112 R0
SYMATTR InstName U1
SYMATTR Value T3035H-6G
SYMBOL res 224 -208 R90
WINDOW 0 0 56 VBottom 2
WINDOW 3 32 56 VTop 2
SYMATTR InstName R1
SYMATTR Value 180
SYMBOL Misc\\signal -416 -160 R0
WINDOW 123 0 0 Left 0
WINDOW 39 0 0 Left 0
SYMATTR InstName V2
SYMATTR Value PULSE(0 5 5m 10u 10u 2m 8.3m)
SYMBOL res -224 -208 R90
WINDOW 0 0 56 VBottom 2
WINDOW 3 32 56 VTop 2
SYMATTR InstName R3
SYMATTR Value 200
SYMBOL res 112 -208 R90
WINDOW 0 0 56 VBottom 2
WINDOW 3 32 56 VTop 2
SYMATTR InstName R4
SYMATTR Value 180
SYMBOL cap 96 32 R0
SYMATTR InstName C1
SYMATTR Value 47n
TEXT 104 200 Left 2 !.tran 0 100m 0 0.1m
TEXT -408 -392 Left 2 !.inc /home/jesus/Documentos/UTSA/Materias/Potencia/Labs/Lab3/en.high-temperature_triacs_pspice/st_high-temperature_triacs.lib
TEXT -400 -344 Left 2 !.inc /home/jesus/Documentos/UTSA/Materias/Potencia/Labs/Lab3/opto_diac/MOC302x.lib
